<?xml version="1.0" encoding="UTF-8"?>

<!-- generated on 2025-03-02 17:05:03 by Eclipse SUMO netedit Version 1.22.0
<neteditConfiguration xmlns:xsi="http://www.w3.org/2001/XMLSchema-instance" xsi:noNamespaceSchemaLocation="http://sumo.dlr.de/xsd/neteditConfiguration.xsd">


    <processing>
        <geometry.min-radius.fix.railways value="false"/>
        <geometry.max-grade.fix value="false"/>
        <offset.disable-normalization value="true"/>
        <lefthand value="0"/>
    </processing>

    <junctions>
        <no-turnarounds value="true"/>
        <junctions.corner-detail value="5"/>
        <junctions.limit-turn-speed value="5.50"/>
        <rectangular-lane-cut value="0"/>
    </junctions>

    <pedestrian>
        <walkingareas value="0"/>
    </pedestrian>

</neteditConfiguration>
-->

<edges version="1.20" xmlns:xsi="http://www.w3.org/2001/XMLSchema-instance" xsi:noNamespaceSchemaLocation="http://sumo.dlr.de/xsd/edges_file.xsd">
    <edge id="-E1" from="J3" to="J2" priority="-1" numLanes="2" speed="13.89" shape="-107.61,34.71 -6.60,34.71" spreadType="center"/>
    <edge id="-E2" from="J4" to="J2" priority="-1" numLanes="2" speed="13.89" shape="101.42,42.42 -6.64,41.11" spreadType="center"/>
    <edge id="-E3" from="J2" to="J5" priority="-1" numLanes="2" speed="13.89" shape="-3.40,37.93 -4.02,120.41" spreadType="center"/>
    <edge id="-E4" from="J6" to="J2" priority="-1" numLanes="2" speed="13.89" shape="-2.64,-49.17 -3.40,37.94" spreadType="center"/>
    <edge id="E1" from="J2" to="J3" priority="-1" numLanes="2" speed="13.89" shape="-6.60,41.11 -107.61,41.11" spreadType="center"/>
    <edge id="E2" from="J2" to="J4" priority="-1" numLanes="2" speed="13.89" shape="-6.56,34.71 101.50,36.02" spreadType="center"/>
    <edge id="E3" from="J5" to="J2" priority="-1" numLanes="2" speed="13.89" shape="-10.42,120.36 -9.80,37.89" spreadType="center"/>
    <edge id="E4" from="J2" to="J6" priority="-1" numLanes="2" speed="13.89" shape="-9.80,37.88 -9.04,-49.22" spreadType="center"/>
</edges>
