<?xml version="1.0" encoding="UTF-8"?>

<!-- generated on 2025-03-02 17:05:03 by Eclipse SUMO netedit Version 1.22.0
<neteditConfiguration xmlns:xsi="http://www.w3.org/2001/XMLSchema-instance" xsi:noNamespaceSchemaLocation="http://sumo.dlr.de/xsd/neteditConfiguration.xsd">


    <processing>
        <geometry.min-radius.fix.railways value="false"/>
        <geometry.max-grade.fix value="false"/>
        <offset.disable-normalization value="true"/>
        <lefthand value="0"/>
    </processing>

    <junctions>
        <no-turnarounds value="true"/>
        <junctions.corner-detail value="5"/>
        <junctions.limit-turn-speed value="5.50"/>
        <rectangular-lane-cut value="0"/>
    </junctions>

    <pedestrian>
        <walkingareas value="0"/>
    </pedestrian>

</neteditConfiguration>
-->

<connections version="1.20" xmlns:xsi="http://www.w3.org/2001/XMLSchema-instance" xsi:noNamespaceSchemaLocation="http://sumo.dlr.de/xsd/connections_file.xsd">
    <connection from="-E1" to="E4" fromLane="0" toLane="0"/>
    <connection from="-E1" to="E2" fromLane="0" toLane="0"/>
    <connection from="-E1" to="E2" fromLane="1" toLane="1"/>
    <connection from="-E1" to="-E3" fromLane="1" toLane="1"/>

    <connection from="-E2" to="-E3" fromLane="0" toLane="0"/>
    <connection from="-E2" to="E1" fromLane="0" toLane="0"/>
    <connection from="-E2" to="E1" fromLane="1" toLane="1"/>
    <connection from="-E2" to="E4" fromLane="1" toLane="1"/>

    <connection from="-E3"/>

    <connection from="-E4" to="E2" fromLane="0" toLane="0"/>
    <connection from="-E4" to="-E3" fromLane="0" toLane="0"/>
    <connection from="-E4" to="-E3" fromLane="1" toLane="1"/>
    <connection from="-E4" to="E1" fromLane="1" toLane="1"/>

    <connection from="E1"/>

    <connection from="E2"/>

    <connection from="E3" to="E1" fromLane="0" toLane="0"/>
    <connection from="E3" to="E4" fromLane="0" toLane="0"/>
    <connection from="E3" to="E4" fromLane="1" toLane="1"/>
    <connection from="E3" to="E2" fromLane="1" toLane="1"/>

    <connection from="E4"/>

</connections>
