<?xml version="1.0" encoding="UTF-8"?>

<!-- generated on 2025-03-02 17:05:03 by Eclipse SUMO netedit Version 1.22.0
<neteditConfiguration xmlns:xsi="http://www.w3.org/2001/XMLSchema-instance" xsi:noNamespaceSchemaLocation="http://sumo.dlr.de/xsd/neteditConfiguration.xsd">

    <processing>
        <geometry.min-radius.fix.railways value="false"/>
        <geometry.max-grade.fix value="false"/>
        <offset.disable-normalization value="true"/>
        <lefthand value="0"/>
    </processing>

    <junctions>
        <no-turnarounds value="true"/>
        <junctions.corner-detail value="5"/>
        <junctions.limit-turn-speed value="5.50"/>
        <rectangular-lane-cut value="0"/>
    </junctions>

    <pedestrian>
        <walkingareas value="0"/>
    </pedestrian>

</neteditConfiguration>
-->

<nodes version="1.20" xmlns:xsi="http://www.w3.org/2001/XMLSchema-instance" xsi:noNamespaceSchemaLocation="http://sumo.dlr.de/xsd/nodes_file.xsd">
    <location netOffset="0.00,0.00" convBoundary="-107.61,-49.22,101.50,120.41" origBoundary="-10000000000.00,-10000000000.00,10000000000.00,10000000000.00" projParameter="!"/>

    <node id="J2" x="-6.60" y="37.91" type="traffic_light" tl="J2"/>
    <node id="J3" x="-107.50" y="37.91" type="dead_end"/>
    <node id="J4" x="101.36" y="39.22" type="dead_end"/>
    <node id="J5" x="-7.22" y="120.26" type="dead_end"/>
    <node id="J6" x="-5.84" y="-49.08" type="dead_end"/>
</nodes>
